Version 4
SHEET 1 1120 680
WIRE 128 -224 -32 -224
WIRE 272 -224 192 -224
WIRE -32 -208 -32 -224
WIRE -32 -112 -32 -128
WIRE 272 -112 272 -144
WIRE 272 -112 -32 -112
WIRE -32 -64 -32 -112
FLAG -32 -64 0
SYMBOL diode 128 -208 R270
WINDOW 0 32 32 VTop 2
WINDOW 3 0 32 VBottom 2
SYMATTR InstName D1
SYMATTR Value 1N4007
SYMBOL res 256 -240 R0
SYMATTR InstName R1
SYMATTR Value 1k
SYMBOL voltage -32 -224 R0
SYMATTR InstName V1
TEXT 48 -8 Left 2 !.dc V1 -1200 10 0.1
TEXT -72 -296 Left 2 !.model 1N4007 D (IS=76.9p RS=42.0m BV=1.00k IBV=5.00u CJO=26.5p  M=0.333 N=1.45 TT=4.32u)
