Version 4.1
SHEET 1 880 744
WIRE 96 192 -80 192
WIRE 480 192 96 192
WIRE 96 224 96 192
WIRE 480 224 480 192
WIRE 480 336 480 304
WIRE 480 352 480 336
WIRE -80 368 -80 192
WIRE 96 416 96 304
WIRE 128 416 96 416
WIRE 288 416 208 416
WIRE 400 416 352 416
WIRE 432 416 400 416
WIRE 96 464 96 416
WIRE 96 560 96 544
WIRE -80 656 -80 448
WIRE 96 656 96 624
WIRE 96 656 -80 656
WIRE 480 656 480 416
WIRE 480 656 96 656
WIRE 480 688 480 656
FLAG 480 688 0
FLAG 400 416 Vg
FLAG 480 336 Va
SYMBOL Misc\\SCR 464 352 R0
SYMATTR InstName U1
SYMATTR Value TN815-800H
SYMBOL diode 288 432 R270
WINDOW 0 32 32 VTop 2
WINDOW 3 0 32 VBottom 2
SYMATTR InstName D1
SYMBOL res 80 208 R0
SYMATTR InstName R1
SYMATTR Value {1K5+(5K-p)}
SYMBOL res 80 448 R0
SYMATTR InstName R2
SYMATTR Value {p}
SYMBOL res 112 432 R270
WINDOW 0 32 56 VTop 2
WINDOW 3 0 56 VBottom 2
SYMATTR InstName R3
SYMATTR Value 1K
SYMBOL res 496 320 R180
WINDOW 0 36 76 Left 2
WINDOW 3 36 40 Left 2
SYMATTR InstName R4
SYMATTR Value 1K
SYMBOL voltage -80 352 R0
WINDOW 3 10 103 Left 2
WINDOW 123 0 0 Left 0
WINDOW 39 0 0 Left 0
SYMATTR InstName V1
SYMATTR Value SINE(0 20 50)
SYMBOL cap 80 560 R0
SYMATTR InstName C1
SYMATTR Value 4.7µ
TEXT -80 720 Left 2 !.include models/st_standard_sensitive_scr.lib
TEXT -80 152 Left 2 !.step param p 100 5K 500
TEXT -80 120 Left 2 !.tran 0 1 .96 1m
