Version 4.1
SHEET 1 880 680
WIRE 432 80 240 80
WIRE 240 128 240 80
WIRE 432 128 432 80
WIRE 192 192 32 192
WIRE 32 224 32 192
WIRE 32 336 32 304
WIRE 240 336 240 224
WIRE 240 336 32 336
WIRE 432 336 432 208
WIRE 432 336 240 336
WIRE 240 368 240 336
FLAG 240 368 0
SYMBOL njf 192 128 R0
SYMATTR InstName J1
SYMATTR Value 2N3819
SYMBOL voltage 32 208 R0
SYMATTR InstName V1
SYMATTR Value -7
SYMBOL voltage 432 112 R0
SYMATTR InstName V2
SYMATTR Value 10
TEXT -192 480 Left 2 !.model 2N3819 NJF(Beta=1.304m Betatce=-.5 Rd=1 Rs=1 Lambda=2.25m\n+ Vto=-3 Vtotc=-2.5m Is=33.57f Isr=322.4f N=1 Nr=2 Xti=3 Alpha=311.7u\n+ Vk=243.6 Cgd=1.6p M=.3622 Pb=1 Fc=.5 Cgs=2.414p Kf=9.882E-18 Af=1\n+ mfg=Vishay)
TEXT 16 376 Left 2 !.dc V1 -7 0 0.1
