Version 4.1
SHEET 1 3080 680
WIRE 400 16 208 16
WIRE 208 112 208 16
WIRE 400 112 400 16
WIRE 160 176 112 176
WIRE 112 272 112 176
WIRE 208 272 208 208
WIRE 208 272 112 272
WIRE 400 272 400 192
WIRE 400 272 208 272
WIRE 208 304 208 272
FLAG 208 304 0
SYMBOL njf 160 112 R0
SYMATTR InstName J1
SYMATTR Value 2N3819
SYMBOL voltage 400 96 R0
SYMATTR InstName V1
SYMATTR Value 15
TEXT -152 392 Left 2 !.model 2N3819 NJF(Beta=1.304m Betatce=-.5 Rd=1 Rs=1 Lambda=2.25m\n+ Vto=-3 Vtotc=-2.5m Is=33.57f Isr=322.4f N=1 Nr=2 Xti=3 Alpha=311.7u\n+ Vk=243.6 Cgd=1.6p M=.3622 Pb=1 Fc=.5 Cgs=2.414p Kf=9.882E-18 Af=1\n+ mfg=Vishay)
TEXT 280 312 Left 2 !.dc V1 0 15 0.1
